11333
  -OEChem-07031623453D

 45 46  0     1  0  0  0  0  0999 V2000
   -0.1840    0.9712   -0.2274 O   0  0  0  0  0  0  0  0  0  0  0  0
   -3.2742    0.5171    0.2155 O   0  0  0  0  0  0  0  0  0  0  0  0
    1.4274   -0.7177   -0.2447 O   0  0  0  0  0  0  0  0  0  0  0  0
   -1.9890   -2.1292   -0.5867 O   0  0  0  0  0  0  0  0  0  0  0  0
   -3.4499   -1.4410    1.5323 O   0  0  0  0  0  0  0  0  0  0  0  0
    1.8748    2.9072   -0.5127 O   0  0  0  0  0  0  0  0  0  0  0  0
    4.4233    2.0286    0.5355 O   0  0  0  0  0  0  0  0  0  0  0  0
    3.6612   -0.4586    1.5164 O   0  0  0  0  0  0  0  0  0  0  0  0
   -4.4784    1.1745   -2.2039 O   0  0  0  0  0  0  0  0  0  0  0  0
   -3.1288    0.8366    2.9860 O   0  0  0  0  0  0  0  0  0  0  0  0
    1.8730   -3.3369   -0.9386 O   0  0  0  0  0  0  0  0  0  0  0  0
   -1.1480    0.0971   -0.8048 C   0  0  1  0  0  0  0  0  0  0  0  0
   -1.4695   -1.0290    0.1572 C   0  0  1  0  0  0  0  0  0  0  0  0
   -2.4751    0.8429   -0.9392 C   0  0  1  0  0  0  0  0  0  0  0  0
   -2.5743   -0.4343    1.0333 C   0  0  1  0  0  0  0  0  0  0  0  0
    1.1395    0.6246   -0.6340 C   0  0  2  0  0  0  0  0  0  0  0  0
    2.1071    1.6072    0.0294 C   0  0  1  0  0  0  0  0  0  0  0  0
    3.5566    1.2027   -0.2372 C   0  0  2  0  0  0  0  0  0  0  0  0
    3.7881   -0.2694    0.1056 C   0  0  2  0  0  0  0  0  0  0  0  0
    2.7478   -1.1380   -0.6101 C   0  0  1  0  0  0  0  0  0  0  0  0
   -3.2663    0.4393   -2.1762 C   0  0  0  0  0  0  0  0  0  0  0  0
   -2.0348    0.3178    2.2494 C   0  0  0  0  0  0  0  0  0  0  0  0
    2.8734   -2.6125   -0.2452 C   0  0  0  0  0  0  0  0  0  0  0  0
   -0.8087   -0.2492   -1.7892 H   0  0  0  0  0  0  0  0  0  0  0  0
   -0.6415   -1.3997    0.7660 H   0  0  0  0  0  0  0  0  0  0  0  0
   -2.3366    1.9303   -0.9302 H   0  0  0  0  0  0  0  0  0  0  0  0
    1.1999    0.7191   -1.7270 H   0  0  0  0  0  0  0  0  0  0  0  0
    1.9199    1.6781    1.1076 H   0  0  0  0  0  0  0  0  0  0  0  0
    3.8045    1.3784   -1.2915 H   0  0  0  0  0  0  0  0  0  0  0  0
    4.8075   -0.5649   -0.1640 H   0  0  0  0  0  0  0  0  0  0  0  0
    2.8431   -1.0349   -1.6990 H   0  0  0  0  0  0  0  0  0  0  0  0
   -3.5268   -0.6233   -2.1703 H   0  0  0  0  0  0  0  0  0  0  0  0
   -2.7090    0.6606   -3.0912 H   0  0  0  0  0  0  0  0  0  0  0  0
   -1.4008    1.1625    1.9681 H   0  0  0  0  0  0  0  0  0  0  0  0
   -1.4748   -0.3545    2.9080 H   0  0  0  0  0  0  0  0  0  0  0  0
    2.7181   -2.7856    0.8244 H   0  0  0  0  0  0  0  0  0  0  0  0
    3.8526   -3.0096   -0.5285 H   0  0  0  0  0  0  0  0  0  0  0  0
   -1.2741   -2.4565   -1.1588 H   0  0  0  0  0  0  0  0  0  0  0  0
   -3.9087   -1.0906    2.3143 H   0  0  0  0  0  0  0  0  0  0  0  0
    0.9411    3.1266   -0.3519 H   0  0  0  0  0  0  0  0  0  0  0  0
    4.2308    2.9526    0.3014 H   0  0  0  0  0  0  0  0  0  0  0  0
    2.7257   -0.3486    1.7565 H   0  0  0  0  0  0  0  0  0  0  0  0
   -4.9613    0.9746   -1.3838 H   0  0  0  0  0  0  0  0  0  0  0  0
   -2.7615    1.2995    3.7581 H   0  0  0  0  0  0  0  0  0  0  0  0
    1.0110   -2.9688   -0.6794 H   0  0  0  0  0  0  0  0  0  0  0  0
  1 12  1  0  0  0  0
  1 16  1  0  0  0  0
  2 14  1  0  0  0  0
  2 15  1  0  0  0  0
  3 16  1  0  0  0  0
  3 20  1  0  0  0  0
  4 13  1  0  0  0  0
  4 38  1  0  0  0  0
  5 15  1  0  0  0  0
  5 39  1  0  0  0  0
  6 17  1  0  0  0  0
  6 40  1  0  0  0  0
  7 18  1  0  0  0  0
  7 41  1  0  0  0  0
  8 19  1  0  0  0  0
  8 42  1  0  0  0  0
  9 21  1  0  0  0  0
  9 43  1  0  0  0  0
 10 22  1  0  0  0  0
 10 44  1  0  0  0  0
 11 23  1  0  0  0  0
 11 45  1  0  0  0  0
 12 13  1  0  0  0  0
 12 14  1  0  0  0  0
 12 24  1  0  0  0  0
 13 15  1  0  0  0  0
 13 25  1  0  0  0  0
 14 21  1  0  0  0  0
 14 26  1  0  0  0  0
 15 22  1  0  0  0  0
 16 17  1  0  0  0  0
 16 27  1  0  0  0  0
 17 18  1  0  0  0  0
 17 28  1  0  0  0  0
 18 19  1  0  0  0  0
 18 29  1  0  0  0  0
 19 20  1  0  0  0  0
 19 30  1  0  0  0  0
 20 23  1  0  0  0  0
 20 31  1  0  0  0  0
 21 32  1  0  0  0  0
 21 33  1  0  0  0  0
 22 34  1  0  0  0  0
 22 35  1  0  0  0  0
 23 36  1  0  0  0  0
 23 37  1  0  0  0  0
M  END
> <PUBCHEM_COMPOUND_CID>
11333

> <PUBCHEM_CONFORMER_RMSD>
0.8

> <PUBCHEM_CONFORMER_DIVERSEORDER>
1
52
25
32
17
67
50
59
73
49
62
70
58
14
61
55
20
71
35
26
54
21
57
28
66
18
65
60
31
42
45
33
19
56
5
53
23
30
68
34
40
72
6
46
8
11
63
12
64
37
15
39
47
36
16
29
24
43
7
69
9
22
48
41
3
4
13
27
38
10
51
44
2

> <PUBCHEM_MMFF94_PARTIAL_CHARGES>
31
1 -0.56
10 -0.68
11 -0.68
12 0.28
13 0.28
14 0.28
15 0.56
16 0.56
17 0.28
18 0.28
19 0.28
2 -0.56
20 0.28
21 0.28
22 0.28
23 0.28
3 -0.56
38 0.4
39 0.4
4 -0.68
40 0.4
41 0.4
42 0.4
43 0.4
44 0.4
45 0.4
5 -0.68
6 -0.68
7 -0.68
8 -0.68
9 -0.68

> <PUBCHEM_EFFECTIVE_ROTOR_COUNT>
7.2

> <PUBCHEM_PHARMACOPHORE_FEATURES>
21
1 1 acceptor
1 10 acceptor
1 10 donor
1 11 acceptor
1 11 donor
1 2 acceptor
1 3 acceptor
1 4 acceptor
1 4 donor
1 5 acceptor
1 5 donor
1 6 acceptor
1 6 donor
1 7 acceptor
1 7 donor
1 8 acceptor
1 8 donor
1 9 acceptor
1 9 donor
5 2 12 13 14 15 rings
6 3 16 17 18 19 20 rings

> <PUBCHEM_HEAVY_ATOM_COUNT>
23

> <PUBCHEM_ATOM_DEF_STEREO_COUNT>
9

> <PUBCHEM_ATOM_UDEF_STEREO_COUNT>
0

> <PUBCHEM_BOND_DEF_STEREO_COUNT>
0

> <PUBCHEM_BOND_UDEF_STEREO_COUNT>
0

> <PUBCHEM_ISOTOPIC_ATOM_COUNT>
0

> <PUBCHEM_COMPONENT_COUNT>
1

> <PUBCHEM_CACTVS_TAUTO_COUNT>
1

> <PUBCHEM_CONFORMER_ID>
00002C4500000001

> <PUBCHEM_MMFF94_ENERGY>
70.3675

> <PUBCHEM_FEATURE_SELFOVERLAP>
106.736

> <PUBCHEM_SHAPE_FINGERPRINT>
10366900 7 17386859485138844480
11640471 11 17346049873980808875
12173636 292 17703804642658506787
12553582 1 18053114925832874334
12714826 92 17168729443552251985
12892183 10 18126033583387584243
13224815 77 18341048609658462558
13296908 3 17967819340333610438
13583140 156 17821721754120005072
14178342 30 18201442497372920634
15309172 13 18341334508667746364
15375358 24 18260536819095966196
15420108 30 15753447645266570073
15635459 17 18260833665745025594
15653759 3 17530965803927976788
16945 1 18412548691187442284
17349148 13 17846773014157187519
18219364 16 18408324397256544447
19049666 15 18042123159059223756
200 152 17916859244387427479
20279233 1 18261106361787159670
20645477 70 18336536149608610158
20739085 24 18337969943295345976
21285901 2 18043232562028656708
23419403 2 15367295936703481409
23526113 38 18116421562068433934
23557571 272 17240208720106708444
23559900 14 17604427389085122486
23598291 2 17560804277758028326
2748010 2 18041003916441549247
312423 11 17489591125677315390
4921388 177 15068344514152186313
495365 180 18197753648688579180
5161694 15 17676768669358831510
6049 1 17968394371808521967
633830 44 17845392070993354300
7097593 13 18128555802552468578
7615 1 17274819091169985575
77492 1 17489870410183515300
81228 2 17829887638428808500
9709674 26 18261104158389984591

> <PUBCHEM_SHAPE_MULTIPOLES>
408.77
8.12
2.55
1.97
0.79
1.03
-0.92
-1.27
-0.13
2.53
0.61
-3.17
-0.33
1.04

> <PUBCHEM_SHAPE_SELFOVERLAP>
842.237

> <PUBCHEM_SHAPE_VOLUME>
230.9

> <PUBCHEM_COORDINATE_TYPE>
2
5
10

$$$$
